688597
  -OEChem-03302207373D

 29 30  0     0  0  0  0  0  0999 V2000
    4.6529    0.6175    1.7109 O   0  0  0  0  0  0  0  0  0  0  0  0
    0.4894   -0.0092   -0.6208 N   0  0  0  0  0  0  0  0  0  0  0  0
   -1.9401   -1.8113   -0.0544 N   0  0  0  0  0  0  0  0  0  0  0  0
   -1.0851    1.7603   -0.2498 N   0  0  0  0  0  0  0  0  0  0  0  0
   -3.9765   -1.0411    0.4235 N   0  0  0  0  0  0  0  0  0  0  0  0
   -3.4222    1.3225    0.2967 N   0  0  0  0  0  0  0  0  0  0  0  0
   -1.8361   -0.4496   -0.0768 C   0  0  0  0  0  0  0  0  0  0  0  0
    1.6018    0.8704   -0.8801 C   0  0  0  0  0  0  0  0  0  0  0  0
   -0.7902    0.4334   -0.3206 C   0  0  0  0  0  0  0  0  0  0  0  0
    2.8249    0.0473   -1.1428 C   0  0  0  0  0  0  0  0  0  0  0  0
   -3.1131    0.0056    0.2228 C   0  0  0  0  0  0  0  0  0  0  0  0
    3.7231   -0.4015   -0.2447 C   0  0  0  0  0  0  0  0  0  0  0  0
    3.5361   -0.1148    1.2240 C   0  0  0  0  0  0  0  0  0  0  0  0
   -3.2403   -2.1179    0.2497 C   0  0  0  0  0  0  0  0  0  0  0  0
    4.9330   -1.2273   -0.5860 C   0  0  0  0  0  0  0  0  0  0  0  0
   -2.3576    2.1156    0.0485 C   0  0  0  0  0  0  0  0  0  0  0  0
    1.7527    1.5766   -0.0573 H   0  0  0  0  0  0  0  0  0  0  0  0
    1.3978    1.4781   -1.7703 H   0  0  0  0  0  0  0  0  0  0  0  0
    0.6363   -1.0124   -0.6580 H   0  0  0  0  0  0  0  0  0  0  0  0
    2.9922   -0.2010   -2.1901 H   0  0  0  0  0  0  0  0  0  0  0  0
   -1.1968   -2.4744   -0.2294 H   0  0  0  0  0  0  0  0  0  0  0  0
    3.4850   -1.0628    1.7718 H   0  0  0  0  0  0  0  0  0  0  0  0
    2.6320    0.4445    1.4706 H   0  0  0  0  0  0  0  0  0  0  0  0
   -3.5819   -3.1401    0.3282 H   0  0  0  0  0  0  0  0  0  0  0  0
    5.8519   -0.6985   -0.3146 H   0  0  0  0  0  0  0  0  0  0  0  0
    4.9063   -2.1825   -0.0519 H   0  0  0  0  0  0  0  0  0  0  0  0
    4.9803   -1.4470   -1.6578 H   0  0  0  0  0  0  0  0  0  0  0  0
   -2.5463    3.1828    0.0940 H   0  0  0  0  0  0  0  0  0  0  0  0
    4.5217    0.7373    2.6670 H   0  0  0  0  0  0  0  0  0  0  0  0
  1 13  1  0  0  0  0
  1 29  1  0  0  0  0
  2  8  1  0  0  0  0
  2  9  1  0  0  0  0
  2 19  1  0  0  0  0
  3  7  1  0  0  0  0
  3 14  1  0  0  0  0
  3 21  1  0  0  0  0
  4  9  2  0  0  0  0
  4 16  1  0  0  0  0
  5 11  1  0  0  0  0
  5 14  2  0  0  0  0
  6 11  1  0  0  0  0
  6 16  2  0  0  0  0
  7  9  1  0  0  0  0
  7 11  2  0  0  0  0
  8 10  1  0  0  0  0
  8 17  1  0  0  0  0
  8 18  1  0  0  0  0
 10 12  2  0  0  0  0
 10 20  1  0  0  0  0
 12 13  1  0  0  0  0
 12 15  1  0  0  0  0
 13 22  1  0  0  0  0
 13 23  1  0  0  0  0
 14 24  1  0  0  0  0
 15 25  1  0  0  0  0
 15 26  1  0  0  0  0
 15 27  1  0  0  0  0
 16 28  1  0  0  0  0
M  END
> <PUBCHEM_COMPOUND_CID>
688597

> <PUBCHEM_CONFORMER_RMSD>
0.6

> <PUBCHEM_CONFORMER_DIVERSEORDER>
2
43
73
25
26
39
36
8
41
49
1
5
72
33
76
53
66
11
44
16
34
3
60
59
6
46
61
62
10
63
7
32
23
64
54
75
71
51
47
21
74
14
27
18
42
48
4
20
15
19
28
56
22
40
35
13
55
12
58
29
52
9
31
17
45
68
69
24
30
50
67
37
65
70
57
38

> <PUBCHEM_MMFF94_PARTIAL_CHARGES>
22
1 -0.68
10 -0.29
11 0.48
12 -0.28
13 0.42
14 0.04
15 0.14
16 0.47
19 0.4
2 -0.87
20 0.15
21 0.27
24 0.15
28 0.15
29 0.4
3 0.03
4 -0.62
5 -0.57
6 -0.57
7 -0.15
8 0.51
9 0.41

> <PUBCHEM_EFFECTIVE_ROTOR_COUNT>
4

> <PUBCHEM_PHARMACOPHORE_FEATURES>
10
1 1 acceptor
1 1 donor
1 15 hydrophobe
1 2 donor
1 3 donor
3 2 4 9 cation
3 3 5 14 cation
3 4 6 16 cation
5 3 5 7 11 14 rings
6 4 6 7 9 11 16 rings

> <PUBCHEM_HEAVY_ATOM_COUNT>
16

> <PUBCHEM_ATOM_DEF_STEREO_COUNT>
0

> <PUBCHEM_ATOM_UDEF_STEREO_COUNT>
0

> <PUBCHEM_BOND_DEF_STEREO_COUNT>
1

> <PUBCHEM_BOND_UDEF_STEREO_COUNT>
0

> <PUBCHEM_ISOTOPIC_ATOM_COUNT>
0

> <PUBCHEM_COMPONENT_COUNT>
1

> <PUBCHEM_CACTVS_TAUTO_COUNT>
8

> <PUBCHEM_CONFORMER_ID>
000A81D500000002

> <PUBCHEM_MMFF94_ENERGY>
26.5137

> <PUBCHEM_FEATURE_SELFOVERLAP>
50.987

> <PUBCHEM_SHAPE_FINGERPRINT>
11046707 91 18259706700527732886
11132069 177 18410293596806747629
12346177 29 18336538352657723285
12500047 106 18267584607036239580
12507560 40 18131066035439296592
12553582 1 17022905623329121660
13675066 3 18202563964962749382
13862211 1 18339087094496302815
14178342 30 18262512594473195066
14420673 8 18049446933652478110
15042514 8 18336277803484553299
15342168 16 14979959215459944864
15653759 3 18202001023530723176
17804303 29 18412270523103603316
17834072 33 18187657920564569492
200 152 16081364155082815516
20281475 54 18040996211797636838
20645477 70 14129054790839623384
21065199 12 18272929419300868632
21065201 7 18337955593482146598
21650355 55 18410291428249560057
22169311 14 18130786716425288356
2255824 54 17241057608109247564
22646028 1 17676204676092360550
22646028 28 18113339725818687462
22959321 94 18333731346653542322
23402539 116 18342736304715986109
23557571 272 18272100369799917908
23559900 14 18270408191920177092
23598291 2 17749687237157877364
2838139 119 14979122337362242553
312423 11 17969523634717176468
4214541 1 18409736123327103564
5104073 3 18410581694908158360
5374978 207 18338519745488490025
559249 180 18041840601793218711
573450 72 18259703389060507144
633830 44 14189582961646227076
90316 7 18187645760726800821

> <PUBCHEM_SHAPE_MULTIPOLES>
298.5
9.63
1.9
1.05
8.14
0.06
-0.27
2.59
-1.98
-2.22
-0.02
1.48
-0.12
0.44

> <PUBCHEM_SHAPE_SELFOVERLAP>
628.26

> <PUBCHEM_SHAPE_VOLUME>
166.7

> <PUBCHEM_COORDINATE_TYPE>
2
5
10

$$$$
