11557770
  -OEChem-03302209513D

 29 31  0     0  0  0  0  0  0999 V2000
   -5.0102   -0.7092    1.9338 O   0  0  0  0  0  0  0  0  0  0  0  0
    0.0996    0.1222   -0.1703 N   0  0  0  0  0  0  0  0  0  0  0  0
    2.4773   -1.8315   -0.1948 N   0  0  0  0  0  0  0  0  0  0  0  0
    1.8121    1.7688    0.1531 N   0  0  0  0  0  0  0  0  0  0  0  0
    4.6034   -1.2076    0.0481 N   0  0  0  0  0  0  0  0  0  0  0  0
    4.1748    1.1742    0.2793 N   0  0  0  0  0  0  0  0  0  0  0  0
   -0.9681    1.0783   -0.1505 C   0  0  0  0  0  0  0  0  0  0  0  0
    1.4502    0.4777   -0.0206 C   0  0  0  0  0  0  0  0  0  0  0  0
    2.4505   -0.4741   -0.0454 C   0  0  0  0  0  0  0  0  0  0  0  0
   -2.3500    0.5105   -0.2534 C   0  0  0  0  0  0  0  0  0  0  0  0
    3.7821   -0.1104    0.1036 C   0  0  0  0  0  0  0  0  0  0  0  0
   -3.0423    0.1627    0.9027 C   0  0  0  0  0  0  0  0  0  0  0  0
   -2.9329    0.3344   -1.5047 C   0  0  0  0  0  0  0  0  0  0  0  0
   -4.3294   -0.3660    0.8065 C   0  0  0  0  0  0  0  0  0  0  0  0
    3.7880   -2.2247   -0.1318 C   0  0  0  0  0  0  0  0  0  0  0  0
   -4.2201   -0.1945   -1.6009 C   0  0  0  0  0  0  0  0  0  0  0  0
   -4.9183   -0.5447   -0.4452 C   0  0  0  0  0  0  0  0  0  0  0  0
    3.1332    2.0338    0.2904 C   0  0  0  0  0  0  0  0  0  0  0  0
   -0.8255    1.7998   -0.9665 H   0  0  0  0  0  0  0  0  0  0  0  0
   -0.9093    1.6743    0.7708 H   0  0  0  0  0  0  0  0  0  0  0  0
   -0.1157   -0.8597   -0.3032 H   0  0  0  0  0  0  0  0  0  0  0  0
    1.6789   -2.4380   -0.3276 H   0  0  0  0  0  0  0  0  0  0  0  0
   -2.5874    0.2974    1.8808 H   0  0  0  0  0  0  0  0  0  0  0  0
   -2.3978    0.6015   -2.4120 H   0  0  0  0  0  0  0  0  0  0  0  0
    4.0775   -3.2618   -0.2239 H   0  0  0  0  0  0  0  0  0  0  0  0
   -4.6783   -0.3343   -2.5756 H   0  0  0  0  0  0  0  0  0  0  0  0
   -5.9201   -0.9561   -0.5338 H   0  0  0  0  0  0  0  0  0  0  0  0
    3.3882    3.0791    0.4280 H   0  0  0  0  0  0  0  0  0  0  0  0
   -5.8824   -1.0579    1.6814 H   0  0  0  0  0  0  0  0  0  0  0  0
  1 14  1  0  0  0  0
  1 29  1  0  0  0  0
  2  7  1  0  0  0  0
  2  8  1  0  0  0  0
  2 21  1  0  0  0  0
  3  9  1  0  0  0  0
  3 15  1  0  0  0  0
  3 22  1  0  0  0  0
  4  8  2  0  0  0  0
  4 18  1  0  0  0  0
  5 11  1  0  0  0  0
  5 15  2  0  0  0  0
  6 11  1  0  0  0  0
  6 18  2  0  0  0  0
  7 10  1  0  0  0  0
  7 19  1  0  0  0  0
  7 20  1  0  0  0  0
  8  9  1  0  0  0  0
  9 11  2  0  0  0  0
 10 12  2  0  0  0  0
 10 13  1  0  0  0  0
 12 14  1  0  0  0  0
 12 23  1  0  0  0  0
 13 16  2  0  0  0  0
 13 24  1  0  0  0  0
 14 17  2  0  0  0  0
 15 25  1  0  0  0  0
 16 17  1  0  0  0  0
 16 26  1  0  0  0  0
 17 27  1  0  0  0  0
 18 28  1  0  0  0  0
M  END
> <PUBCHEM_COMPOUND_CID>
11557770

> <PUBCHEM_CONFORMER_RMSD>
0.6

> <PUBCHEM_CONFORMER_DIVERSEORDER>
1
34
43
32
20
28
33
14
23
17
31
2
35
39
18
9
41
8
26
11
36
30
10
45
48
13
24
42
29
3
37
16
46
21
7
27
4
44
25
12
5
19
38
15
22
47
6
40

> <PUBCHEM_MMFF94_PARTIAL_CHARGES>
27
1 -0.53
10 -0.14
11 0.48
12 -0.15
13 -0.15
14 0.08
15 0.04
16 -0.15
17 -0.15
18 0.47
2 -0.87
21 0.4
22 0.27
23 0.15
24 0.15
25 0.15
26 0.15
27 0.15
28 0.15
29 0.45
3 0.03
4 -0.62
5 -0.57
6 -0.57
7 0.51
8 0.41
9 -0.15

> <PUBCHEM_EFFECTIVE_ROTOR_COUNT>
3

> <PUBCHEM_PHARMACOPHORE_FEATURES>
9
1 1 donor
1 2 donor
1 3 donor
3 2 4 8 cation
3 3 5 15 cation
3 4 6 18 cation
5 3 5 9 11 15 rings
6 10 12 13 14 16 17 rings
6 4 6 8 9 11 18 rings

> <PUBCHEM_HEAVY_ATOM_COUNT>
18

> <PUBCHEM_ATOM_DEF_STEREO_COUNT>
0

> <PUBCHEM_ATOM_UDEF_STEREO_COUNT>
0

> <PUBCHEM_BOND_DEF_STEREO_COUNT>
0

> <PUBCHEM_BOND_UDEF_STEREO_COUNT>
0

> <PUBCHEM_ISOTOPIC_ATOM_COUNT>
0

> <PUBCHEM_COMPONENT_COUNT>
1

> <PUBCHEM_CACTVS_TAUTO_COUNT>
24

> <PUBCHEM_CONFORMER_ID>
00B05B8A00000001

> <PUBCHEM_MMFF94_ENERGY>
41.9124

> <PUBCHEM_FEATURE_SELFOVERLAP>
45.917

> <PUBCHEM_SHAPE_FINGERPRINT>
10912923 1 17489586796561062921
11405975 8 18337387115631944137
11552529 35 17914898883943878455
11796584 16 16879337919029799098
12107183 9 17626398813646239051
12236239 1 17489587878592238565
12596602 18 16773791523859580890
13167823 11 18060135448971943503
13533116 47 18272930548851049547
13544653 18 18409167710085896733
13631057 29 17555157417892489655
13760787 5 18201717366594685653
13862211 1 18339918196501212134
13955234 65 18340764931838556000
14252887 29 18334012813167068488
14386348 63 17967252001066115419
14849402 71 17273962710095648096
15375462 189 17917991685007462584
15961568 22 16226052257737323468
17844677 252 18411420600868871357
17870717 6 17022904523954884199
19050596 39 17489870440406502849
19078846 21 16559032687960786545
200 152 18272362075485315581
20279233 1 17821725039749017305
20281475 54 18059567023035342573
20432913 95 18412262839644351003
20645477 70 18410001126824724230
21065198 48 17989490723239099857
21065201 7 16950272992957085401
221490 88 18336827481661949828
22646028 1 17989200447694889181
23503953 91 16917069945221792777
23557571 272 17531234050743228013
23559900 14 17385716972224472356
23596394 208 17968366866795877158
239999 70 17967252014051179328
2871803 45 18114457873056229778
312423 11 18341908354600282900
314194 84 18341610374380849334
3268164 11 15936400161616575831
33824 294 18409443696468592098
5104073 3 18338794516190297896
5281201 14 18040996232729401596
5352402 22 18335996319485326507
573450 72 16774076276386539279
602551 16 16588308331727430291
9709674 26 18187365479987816443

> <PUBCHEM_SHAPE_MULTIPOLES>
339.66
11.85
1.74
1.16
4.34
0.13
0.05
3.24
1.11
-2.91
0.05
2.23
0.12
0.55

> <PUBCHEM_SHAPE_SELFOVERLAP>
748.422

> <PUBCHEM_SHAPE_VOLUME>
180

> <PUBCHEM_COORDINATE_TYPE>
2
5
10

$$$$
