11713250
  -OEChem-03302207513D

 67 70  0     1  0  0  0  0  0999 V2000
    4.6836   -0.9904   -0.3590 O   0  0  0  0  0  0  0  0  0  0  0  0
   -2.9925    1.6538    1.1974 O   0  0  0  0  0  0  0  0  0  0  0  0
    2.5497    1.8416   -0.9485 O   0  0  0  0  0  0  0  0  0  0  0  0
    5.1403    1.6822   -1.7543 O   0  0  0  0  0  0  0  0  0  0  0  0
   -4.4942    0.8047   -0.3735 O   0  0  0  0  0  0  0  0  0  0  0  0
   -1.1334    3.9695   -1.6396 O   0  0  0  0  0  0  0  0  0  0  0  0
    0.1877    3.4419    0.8768 O   0  0  0  0  0  0  0  0  0  0  0  0
   -2.7708    1.6579   -2.4496 O   0  0  0  0  0  0  0  0  0  0  0  0
    6.5731   -1.2598    1.6953 O   0  0  0  0  0  0  0  0  0  0  0  0
   -2.0494    1.2914    3.7539 O   0  0  0  0  0  0  0  0  0  0  0  0
    2.3298   -1.2415   -0.1939 N   0  0  0  0  0  0  0  0  0  0  0  0
    1.2300   -2.5891    1.2005 N   0  0  0  0  0  0  0  0  0  0  0  0
    0.6449   -0.9647   -1.9217 N   0  0  0  0  0  0  0  0  0  0  0  0
   -1.5930   -3.5071    0.5930 N   0  0  0  0  0  0  0  0  0  0  0  0
   -1.3835   -2.2131   -1.3896 N   0  0  0  0  0  0  0  0  0  0  0  0
    3.4227    1.0091   -0.2127 C   0  0  2  0  0  0  0  0  0  0  0  0
    4.8824    1.3818   -0.3827 C   0  0  1  0  0  0  0  0  0  0  0  0
    3.4133   -0.4212   -0.7304 C   0  0  1  0  0  0  0  0  0  0  0  0
    5.5941    0.0816   -0.0217 C   0  0  1  0  0  0  0  0  0  0  0  0
   -1.3460    2.7888   -0.8641 C   0  0  1  0  0  0  0  0  0  0  0  0
   -1.1830    3.1562    0.6110 C   0  0  1  0  0  0  0  0  0  0  0  0
   -2.7444    2.2394   -1.1464 C   0  0  2  0  0  0  0  0  0  0  0  0
   -1.6442    2.0075    1.5109 C   0  0  1  0  0  0  0  0  0  0  0  0
   -3.1335    1.1625   -0.1335 C   0  0  1  0  0  0  0  0  0  0  0  0
    5.9280   -0.0205    1.4600 C   0  0  0  0  0  0  0  0  0  0  0  0
   -1.6012    2.3935    2.9860 C   0  0  0  0  0  0  0  0  0  0  0  0
    1.1063   -1.4562   -0.7619 C   0  0  0  0  0  0  0  0  0  0  0  0
    2.3564   -1.9430    0.9823 C   0  0  0  0  0  0  0  0  0  0  0  0
    0.4397   -2.2936    0.1183 C   0  0  0  0  0  0  0  0  0  0  0  0
   -4.9319   -0.1962    0.5322 C   0  0  0  0  0  0  0  0  0  0  0  0
   -0.8528   -2.6722   -0.2307 C   0  0  0  0  0  0  0  0  0  0  0  0
   -4.4457   -1.5453    0.0656 C   0  0  0  0  0  0  0  0  0  0  0  0
   -3.0296   -3.6167    0.5410 C   0  0  0  0  0  0  0  0  0  0  0  0
   -0.6131   -1.3998   -2.1518 C   0  0  0  0  0  0  0  0  0  0  0  0
   -3.6330   -2.2811    0.8487 C   0  0  0  0  0  0  0  0  0  0  0  0
   -4.9068   -1.9516   -1.3072 C   0  0  0  0  0  0  0  0  0  0  0  0
    3.1437    1.0537    0.8469 H   0  0  0  0  0  0  0  0  0  0  0  0
    5.1816    2.2493    0.2124 H   0  0  0  0  0  0  0  0  0  0  0  0
    3.3337   -0.4642   -1.8236 H   0  0  0  0  0  0  0  0  0  0  0  0
    6.4992   -0.0772   -0.6189 H   0  0  0  0  0  0  0  0  0  0  0  0
   -0.5757    2.0750   -1.1769 H   0  0  0  0  0  0  0  0  0  0  0  0
   -1.7549    4.0664    0.8290 H   0  0  0  0  0  0  0  0  0  0  0  0
   -3.4828    3.0498   -1.1468 H   0  0  0  0  0  0  0  0  0  0  0  0
   -1.0109    1.1200    1.3737 H   0  0  0  0  0  0  0  0  0  0  0  0
   -2.5012    0.2774   -0.2706 H   0  0  0  0  0  0  0  0  0  0  0  0
    5.0247    0.0055    2.0775 H   0  0  0  0  0  0  0  0  0  0  0  0
    6.5983    0.7885    1.7660 H   0  0  0  0  0  0  0  0  0  0  0  0
   -2.2715    3.2354    3.1886 H   0  0  0  0  0  0  0  0  0  0  0  0
   -0.5869    2.6536    3.3037 H   0  0  0  0  0  0  0  0  0  0  0  0
    1.6601    1.4544   -0.8947 H   0  0  0  0  0  0  0  0  0  0  0  0
    6.0909    1.8701   -1.8360 H   0  0  0  0  0  0  0  0  0  0  0  0
    3.2132   -1.9459    1.6421 H   0  0  0  0  0  0  0  0  0  0  0  0
   -1.8161    4.6180   -1.3966 H   0  0  0  0  0  0  0  0  0  0  0  0
    0.6985    2.6276    0.7305 H   0  0  0  0  0  0  0  0  0  0  0  0
   -2.1030    0.9530   -2.4780 H   0  0  0  0  0  0  0  0  0  0  0  0
   -6.0281   -0.1967    0.5088 H   0  0  0  0  0  0  0  0  0  0  0  0
   -4.6562    0.0297    1.5685 H   0  0  0  0  0  0  0  0  0  0  0  0
    6.7777   -1.3007    2.6449 H   0  0  0  0  0  0  0  0  0  0  0  0
   -2.0175    1.5603    4.6878 H   0  0  0  0  0  0  0  0  0  0  0  0
   -1.1296   -3.8554    1.4261 H   0  0  0  0  0  0  0  0  0  0  0  0
   -3.3595   -4.3311    1.3036 H   0  0  0  0  0  0  0  0  0  0  0  0
   -3.3323   -4.0333   -0.4219 H   0  0  0  0  0  0  0  0  0  0  0  0
   -1.0674   -1.0571   -3.0750 H   0  0  0  0  0  0  0  0  0  0  0  0
   -3.3688   -1.8781    1.8265 H   0  0  0  0  0  0  0  0  0  0  0  0
   -5.9964   -1.8619   -1.3765 H   0  0  0  0  0  0  0  0  0  0  0  0
   -4.4608   -1.3004   -2.0661 H   0  0  0  0  0  0  0  0  0  0  0  0
   -4.6611   -2.9812   -1.5715 H   0  0  0  0  0  0  0  0  0  0  0  0
  1 18  1  0  0  0  0
  1 19  1  0  0  0  0
  2 23  1  0  0  0  0
  2 24  1  0  0  0  0
  3 16  1  0  0  0  0
  3 50  1  0  0  0  0
  4 17  1  0  0  0  0
  4 51  1  0  0  0  0
  5 24  1  0  0  0  0
  5 30  1  0  0  0  0
  6 20  1  0  0  0  0
  6 53  1  0  0  0  0
  7 21  1  0  0  0  0
  7 54  1  0  0  0  0
  8 22  1  0  0  0  0
  8 55  1  0  0  0  0
  9 25  1  0  0  0  0
  9 58  1  0  0  0  0
 10 26  1  0  0  0  0
 10 59  1  0  0  0  0
 11 18  1  0  0  0  0
 11 27  1  0  0  0  0
 11 28  1  0  0  0  0
 12 28  2  0  0  0  0
 12 29  1  0  0  0  0
 13 27  2  0  0  0  0
 13 34  1  0  0  0  0
 14 31  1  0  0  0  0
 14 33  1  0  0  0  0
 14 60  1  0  0  0  0
 15 31  1  0  0  0  0
 15 34  2  0  0  0  0
 16 17  1  0  0  0  0
 16 18  1  0  0  0  0
 16 37  1  0  0  0  0
 17 19  1  0  0  0  0
 17 38  1  0  0  0  0
 18 39  1  0  0  0  0
 19 25  1  0  0  0  0
 19 40  1  0  0  0  0
 20 21  1  0  0  0  0
 20 22  1  0  0  0  0
 20 41  1  0  0  0  0
 21 23  1  0  0  0  0
 21 42  1  0  0  0  0
 22 24  1  0  0  0  0
 22 43  1  0  0  0  0
 23 26  1  0  0  0  0
 23 44  1  0  0  0  0
 24 45  1  0  0  0  0
 25 46  1  0  0  0  0
 25 47  1  0  0  0  0
 26 48  1  0  0  0  0
 26 49  1  0  0  0  0
 27 29  1  0  0  0  0
 28 52  1  0  0  0  0
 29 31  2  0  0  0  0
 30 32  1  0  0  0  0
 30 56  1  0  0  0  0
 30 57  1  0  0  0  0
 32 35  2  0  0  0  0
 32 36  1  0  0  0  0
 33 35  1  0  0  0  0
 33 61  1  0  0  0  0
 33 62  1  0  0  0  0
 34 63  1  0  0  0  0
 35 64  1  0  0  0  0
 36 65  1  0  0  0  0
 36 66  1  0  0  0  0
 36 67  1  0  0  0  0
M  END
> <PUBCHEM_COMPOUND_CID>
11713250

> <PUBCHEM_CONFORMER_RMSD>
1.2

> <PUBCHEM_CONFORMER_DIVERSEORDER>
10
38
11
68
70
74
33
42
94
25
60
89
103
96
108
66
67
35
87
3
55
92
26
95
111
6
72
28
24
19
57
101
44
45
113
90
88
86
29
22
85
53
8
14
30
76
75
64
105
50
54
79
36
112
65
109
102
84
99
39
34
81
49
91
100
1
58
78
12
23
40
27
31
17
80
46
63
16
69
9
13
104
107
43
110
61
98
82
20
5
52
7
37
83
41
4
93
48
106
97
2
32
77
51
73
47
21
59
18
62
71
15
56

> <PUBCHEM_MMFF94_PARTIAL_CHARGES>
47
1 -0.56
10 -0.68
11 0.05
12 -0.57
13 -0.57
14 -0.87
15 -0.62
16 0.28
17 0.28
18 0.54
19 0.28
2 -0.56
20 0.28
21 0.28
22 0.28
23 0.28
24 0.56
25 0.28
26 0.28
27 0.11
28 0.04
29 0.23
3 -0.68
30 0.42
31 0.41
32 -0.28
33 0.51
34 0.47
35 -0.29
36 0.14
4 -0.68
5 -0.56
50 0.4
51 0.4
52 0.15
53 0.4
54 0.4
55 0.4
58 0.4
59 0.4
6 -0.68
60 0.4
63 0.15
64 0.15
7 -0.68
8 -0.68
9 -0.68

> <PUBCHEM_EFFECTIVE_ROTOR_COUNT>
11.2

> <PUBCHEM_PHARMACOPHORE_FEATURES>
27
1 1 acceptor
1 10 acceptor
1 10 donor
1 14 cation
1 14 donor
1 2 acceptor
1 3 acceptor
1 3 donor
1 36 hydrophobe
1 4 acceptor
1 4 donor
1 5 acceptor
1 6 acceptor
1 6 donor
1 7 acceptor
1 7 donor
1 8 acceptor
1 8 donor
1 9 acceptor
1 9 donor
3 11 12 28 cation
3 11 13 27 cation
3 13 15 34 cation
5 1 16 17 18 19 rings
5 11 12 27 28 29 rings
6 13 15 27 29 31 34 rings
6 2 20 21 22 23 24 rings

> <PUBCHEM_HEAVY_ATOM_COUNT>
36

> <PUBCHEM_ATOM_DEF_STEREO_COUNT>
9

> <PUBCHEM_ATOM_UDEF_STEREO_COUNT>
0

> <PUBCHEM_BOND_DEF_STEREO_COUNT>
1

> <PUBCHEM_BOND_UDEF_STEREO_COUNT>
0

> <PUBCHEM_ISOTOPIC_ATOM_COUNT>
0

> <PUBCHEM_COMPONENT_COUNT>
1

> <PUBCHEM_CACTVS_TAUTO_COUNT>
3

> <PUBCHEM_CONFORMER_ID>
00B2BAE20000000A

> <PUBCHEM_MMFF94_ENERGY>
86.5332

> <PUBCHEM_FEATURE_SELFOVERLAP>
137.721

> <PUBCHEM_SHAPE_FINGERPRINT>
10032420 55 18114164355212975585
11607047 403 16054099458840029777
12156800 1 17899659570798288265
12655364 131 17470410003993085666
12788726 201 18337117886075901468
13402501 40 18412545435755147551
14068700 675 18058733640735511289
15297060 5 17774738471272144795
19930381 70 16390145168505594237
3504750 166 18339906204626084734
392239 28 18411422816886963833
4112364 45 13195069034073522295
463206 1 18334866055833987641
469060 322 18114470044956850749

> <PUBCHEM_SHAPE_MULTIPOLES>
657.26
11.45
4.75
2.28
14.7
1.1
1.06
-1.98
1.11
-3.93
0.4
-0.82
1.37
-1.07

> <PUBCHEM_SHAPE_SELFOVERLAP>
1391.618

> <PUBCHEM_SHAPE_VOLUME>
362.8

> <PUBCHEM_COORDINATE_TYPE>
2
5
10

$$$$
